
data_findsym-output
_audit_creation_method FINDSYM
 
_cell_length_a    2.0000000000
_cell_length_b    2.0000000000
_cell_length_c    2.0000000000
_cell_angle_alpha 90.0000000000
_cell_angle_beta  90.0000000000
_cell_angle_gamma 90.0000000000
 
_symmetry_space_group_name_H-M "P 1 m 1"
_symmetry_Int_Tables_number 6
_space_group.reference_setting '006:P -2y'
_space_group.transform_Pp_abc a,b,c;0,0,0
 
loop_
_space_group_symop_id
_space_group_symop_operation_xyz
1 x,y,z
2 x,-y,z
 
loop_
_atom_site_label
_atom_site_type_symbol
_atom_site_symmetry_multiplicity
_atom_site_Wyckoff_label
_atom_site_fract_x
_atom_site_fract_y
_atom_site_fract_z
_atom_site_occupancy
C1 C   1 b 0.89990  0.50000 0.10000  1.00000
C2 C   1 b -0.10000 0.50000 -0.10000 1.00000
C3 C   1 b 0.10000  0.50000 0.10000  1.00000
C4 C   1 b 0.10000  0.50000 -0.10000 1.00000
 
