
data_findsym-output
_audit_creation_method FINDSYM
 
_cell_length_a    3.5527000000
_cell_length_b    17.7360001000
_cell_length_c    17.8959998998
_cell_angle_alpha 90.0000000000
_cell_angle_beta  95.2210007445
_cell_angle_gamma 90.0000000000
 
_symmetry_space_group_name_H-M "P 1 21/c 1"
_symmetry_Int_Tables_number 14
_space_group.reference_setting '014:-P 2ybc'
_space_group.transform_Pp_abc a,b,c;0,0,0
 
loop_
_space_group_symop_id
_space_group_symop_operation_xyz
1 x,y,z
2 -x,y+1/2,-z+1/2
3 -x,-y,-z
4 x,-y+1/2,z+1/2
 
loop_
_atom_site_label
_atom_site_type_symbol
_atom_site_symmetry_multiplicity
_atom_site_Wyckoff_label
_atom_site_fract_x
_atom_site_fract_y
_atom_site_fract_z
_atom_site_occupancy
K1  K   4 e 0.60966  0.24905  0.25356  1.00000
N1  N   4 e 0.03707  0.26277  0.12408  1.00000
N2  N   4 e 0.13022  0.11921  0.23950  1.00000
N3  N   4 e 0.16929  0.26400  0.88313  1.00000
N4  N   4 e 0.88339  0.87838  0.23324  1.00000
C1  C   4 e 0.04809  0.29781  0.06860  1.00000
C2  C   4 e 0.06555  0.33979  0.00253  1.00000
C3  C   4 e 0.12346  0.29832  -0.06227 1.00000
C4  C   4 e 0.03295  0.42025  0.00128  1.00000
C5  C   4 e -0.03476 0.46119  0.06716  1.00000
C6  C   4 e -0.06594 0.53842  0.06599  1.00000
C7  C   4 e 0.07789  0.06461  0.20284  1.00000
C8  C   4 e 0.01007  -0.00074 0.15948  1.00000
C9  C   4 e -0.06037 -0.06648 0.19961  1.00000
C10 C   4 e 0.00497  -0.00033 0.07940  1.00000
C11 C   4 e 0.08709  0.06655  0.04000  1.00000
C12 C   4 e 0.08126  0.06695  -0.03689 1.00000
H1  H   4 e -0.06011 0.43062  0.11945  1.00000
H2  H   4 e 0.88252  0.56859  0.11727  1.00000
H3  H   4 e 0.15322  0.11838  0.07146  1.00000
H4  H   4 e 0.14468  0.11897  -0.06586 1.00000
 
